Circuit: * C:\Users\Sanjit\OneDrive - Imperial College London\Documents [IC]\ADC\Labs\ADC 4\Lab Part 4\ADC Lab Part 4\active_load_amplification_stage.asc

Direct Newton iteration for .op point succeeded.

Date: Thu Mar 10 21:56:35 2022
Total elapsed time: 0.072 seconds.

tnom = 27
temp = 27
method = trap
totiter = 7
traniter = 0
tranpoints = 0
accept = 0
rejected = 0
matrix size = 19
fillins = 2
solver = Normal
Matrix Compiler1:      80 opcodes
Matrix Compiler2: 1.65 KB object code size
