Circuit: * C:\Users\Sanjit\OneDrive - Imperial College London\Documents [IC]\ADC\Labs\ADC 4\Lab Part 4\ADC Lab Part 4\amplification_stage_1.asc

Direct Newton iteration for .op point succeeded.

Date: Thu Mar 10 18:06:14 2022
Total elapsed time: 0.028 seconds.

tnom = 27
temp = 27
method = trap
totiter = 7
traniter = 0
tranpoints = 0
accept = 0
rejected = 0
matrix size = 12
fillins = 0
solver = Normal
Matrix Compiler1:      33 opcodes
Matrix Compiler2: 906 bytes object code size
