Circuit: * C:\Users\Sanjit\OneDrive - Imperial College London\Documents [IC]\ADC\Labs\ADC 4\Lab Part 4\ADC Lab Part 4\differential_amplifier_long_tailed_pair.asc

Direct Newton iteration for .op point succeeded.

Date: Fri Mar 11 15:26:37 2022
Total elapsed time: 0.023 seconds.

tnom = 27
temp = 27
method = trap
totiter = 8
traniter = 0
tranpoints = 0
accept = 0
rejected = 0
matrix size = 25
fillins = 6
solver = Normal
Matrix Compiler1:     117 opcodes
Matrix Compiler2: 2.24 KB object code size
