Circuit: * C:\Users\Sanjit\OneDrive - Imperial College London\Documents [IC]\ADC\Labs\ADC 4\Lab Part 4\ADC Lab Part 4\differential_amplifier_long_tailed_pair.asc

WARNING: Less than two connections to node V_IN-2.  This node is used by Q§T6.
Direct Newton iteration for .op point succeeded.

Date: Sat Mar 12 18:31:46 2022
Total elapsed time: 0.032 seconds.

tnom = 27
temp = 27
method = trap
totiter = 21
traniter = 0
tranpoints = 0
accept = 0
rejected = 0
matrix size = 50
fillins = 10
solver = Normal
Matrix Compiler1:     237 opcodes
Matrix Compiler2: 4.52 KB object code size
