Circuit: * C:\Users\Sanjit\OneDrive - Imperial College London\Documents [IC]\ADC\Labs\ADC 4\Lab Part 4\ADC Lab Part 4\wilson_current_mirror.asc


Date: Thu Mar 10 17:10:48 2022
Total elapsed time: 0.084 seconds.

tnom = 27
temp = 27
method = trap
totiter = 2007
traniter = 0
tranpoints = 0
accept = 0
rejected = 0
matrix size = 16
fillins = 4
solver = Normal
Matrix Compiler1: 1.39 KB object code size  0.3/0.2/[0.2]
Matrix Compiler2: 1.42 KB object code size  0.2/0.2/[0.2]

